# Output control package file for MODFLOW-USG
HEAD SAVE UNIT 51
COMPACT BUDGET

PERIOD 1 STEP 1
  PRINT BUDGET
  PRINT HEAD
  SAVE BUDGET
  SAVE HEAD

